variable stp equal 100 #<Defining a variable 'stp' whose value is equal to 100>

The number of steps I will run is 100

region forbox block 0 45.8 0 45.8 0 45.8 units box
#<Refers to an abstract geometric region of space.Unit boxes refers to the fact that the size of the box is specified in the units as given in the units command. The name 'forbox' refers to the region ID so that you can refer to it somewhere else in the input script>

create_box 1 forbox #<Create the box>
Created orthogonal box = (0.0000000 0.0000000 0.0000000) to (45.800000 45.800000 45.800000)

#<Create lattice where 4.58 is argument for lattice constant or scaled. The other value a1 , a2 , a3 are three latice vectors; This is followed by basis corresponding to each lattice>
lattice custom 4.58 a1 1.0 0.0 0.0 a2 0.0 1.0 0.0 a3 0.0 0.0 1.0 		    basis 0.0 0.0 0.0 		    basis 0.5 0.5 0.0 		    basis 0.0 0.5 0.5 		    basis 0.5 0.0 0.5
Lattice spacing in x,y,z = 4.5800000 4.5800000 4.5800000

create_atoms 1 region forbox basis 1 1 basis 2 1 basis 3 1 basis 4 1 units box #Put the atom in the box
Created 4000 atoms

mass 1 39.948 #<Mass of atom type 1 is 39.48 [mass units grams/mole]

pair_style lj/cut 10 #kB = 8.61733033e-5 eV/K #<How atoms are interacting. Provide the name of potential and the corresponding cut-off distance>

pair_coeff 1 1 0.01006418 3.3952 #<The coefficient of lj potential for the interaction of atom type 1 with 1>

group ar type 1 #<Group all the argon types. All atoms of type 1 are in group refered as name 'ar'>
4000 atoms in group ar

dump dump_1 all custom 1 dump_initial_config.dump id type x y z ix iy iz vx vy

run 1
  update every 1 steps, delay 10 steps, check yes
Step Temp E_pair E_mol TotEng Press
0            0    197.81322            0    197.81322    64024.837
Loop time of 0.0209169 on 1 procs for 1 steps with 4000 atoms

undump dump_1

minimize 1e-7 1e-9 10000 10000 #<Minimize the energy using a conjugate gradient step>
Step Temp E_pair E_mol TotEng Press
1            0    197.81322            0    197.81322    64024.837
Loop time of 0.035928 on 1 procs for 1 steps with 4000 atoms

Minimization stats:
  Stopping criterion = energy tolerance
  Energy initial, next-to-last, final =
  Force two-norm initial, final = 3.0169953e-13 2.9960414e-13
  Force max component initial, final = 6.7904971e-15 6.7904971e-15
  Final line search alpha, max atom move = 1.0000000 6.7904971e-15
  Iterations, force evaluations = 1 2

print "Finish Minimizing"
Finish Minimizing

timestep 0.001

velocity all create 300 102939 dist gaussian mom yes rot yes
#Set the velocities of all the atoms so that the temperature

fix 1 all nve
dump dump_1 all custom 100 trj.min id type x y z ix iy iz vx vy vz  #<Dump all the atoms to the file dump.min>

thermo_style custom step time temp pe etotal press vol

thermo 10 #How frequently to print the thermodynamic information
run 1000
Step Time Temp PotEng TotEng Press Volume
2        0.001          300    197.81322    352.88661    65748.927    96071.912
Averages over the last 51 of 102 rows, steps 510 to 1002:
Temp PotEng TotEng Press Volume
151.663 274.48 352.876 70533.8 96071.9
Loop time of 8.25884 on 1 procs for 1000 steps with 4000 atoms

undump dump_1
unfix 1

#Unfix the NVE
