variable stp equal 100 #<Defining a variable 'stp' whose value is equal to 100>

The number of steps I will run is 100

region forbox block 0 45.8 0 45.8 0 45.8 units box
#<Refers to an abstract geometric region of space.Unit boxes refers to the fact that the size of the box is specified in the units as given in the units command. The name 'forbox' refers to the region ID so that you can refer to it somewhere else in the input script>

create_box 1 forbox #<Create the box>
Created orthogonal box = (0.0000000 0.0000000 0.0000000) to (45.800000 45.800000 45.800000)

#<Create lattice where 4.58 is argument for lattice constant or scaled. The other value a1 , a2 , a3 are three latice vectors; This is followed by basis corresponding to each lattice>
lattice custom 4.58 a1 1.0 0.0 0.0 a2 0.0 1.0 0.0 a3 0.0 0.0 1.0 		    basis 0.0 0.0 0.0 		    basis 0.5 0.5 0.0 		    basis 0.0 0.5 0.5 		    basis 0.5 0.0 0.5
Lattice spacing in x,y,z = 4.5800000 4.5800000 4.5800000

create_atoms 1 region forbox basis 1 1 basis 2 1 basis 3 1 basis 4 1 units box #Put the atom in the box
Created 4000 atoms

mass 1 39.948 #<Mass of atom type 1 is 39.48 [mass units grams/mole]

pair_style lj/cut 10 #kB = 8.61733033e-5 eV/K #<How atoms are interacting. Provide the name of potential and the corresponding cut-off distance>

pair_coeff 1 1 0.01006418 3.3952 #<The coefficient of lj potential for the interaction of atom type 1 with 1>

group ar type 1 #<Group all the argon types. All atoms of type 1 are in group refered as name 'ar'>
4000 atoms in group ar

minimize 1e-7 1e-9 10000 10000 #<Minimize the energy using a conjugate gradient step>
  update every 1 steps, delay 0 steps, check yes
Step Temp E_pair E_mol TotEng Press
0            0    197.81322            0    197.81322    64024.837
Loop time of 0.0359709 on 1 procs for 1 steps with 4000 atoms

Minimization stats:
  Stopping criterion = energy tolerance
  Energy initial, next-to-last, final =
  Force two-norm initial, final = 3.0169953e-13 2.9960414e-13
  Force max component initial, final = 6.7904971e-15 6.7904971e-15
  Final line search alpha, max atom move = 1.0000000 6.7904971e-15
  Iterations, force evaluations = 1 2

print "Finish Minimizing"
Finish Minimizing

velocity all create 300 198728 dist gaussian
#Set the velocities of all the atoms so that the temperature

timestep 0.001
fix 1 all nve
dump dump_1 all custom 20 dumpnve.min id type x y z ix iy iz vx vy
#<Dump all the atoms into the dumpnve.min every time step>
thermo 20
run 3000
Step Temp E_pair E_mol TotEng Press
1          300    197.81322            0    352.88661    65748.927
Averages over the last 76 of 152 rows, steps 1520 to 3001:
Temp E_pair E_mol TotEng Press
151.432 274.599 0 352.876 70539.5
Loop time of 25.7478 on 1 procs for 3000 steps with 4000 atoms

undump dump_1
unfix 1

#Let us now change the temperature and pressure slowly using NPT

fix 2 all npt temp 150 300 0.1 iso 70000 1.0 1.0
thermo_style custom step time cpu temp pe ke etotal press vol
#<Print the thermodynamic information>
thermo 20
dump dump_1 all custom 20 dumpnve.min id type x y z ix iy iz vx vy vz  #<Dump all the atoms to the file dump.min>
run 10000
Step Time CPU Temp PotEng KinEng TotEng Press Volume
3001            3            0    154.41572    273.05284    79.819232    352.87207     70444.39    96071.912
Averages over the last 251 of 502 rows, steps 8020 to 13001:
Temp PotEng KinEng TotEng Press Volume
251.506 -150.248 130.006 -20.2422 17600.8 131394
Loop time of 79.6669 on 1 procs for 10000 steps with 4000 atoms

unfix 2

#Checking the pressure/temp it has reached using the NVE ensemble

fix 2 all nve
run 5000
Step Time CPU Temp PotEng KinEng TotEng Press Volume
13001           13            0     263.0685   -184.21463    135.98308   -48.231547    1871.3974    200025.25
Averages over the last 126 of 252 rows, steps 15520 to 18001:
Temp PotEng KinEng TotEng Press Volume
245.146 -175.031 126.719 -48.3124 2320.98 200025
Loop time of 24.6418 on 1 procs for 5000 steps with 4000 atoms

unfix 2
